Circuit: * C:\Users\osari\Desktop\ELEC\D5\1\devre.asc

Direct Newton iteration for .op point succeeded.

Date: Tue Jul 06 18:41:25 2021
Total elapsed time: 0.045 seconds.

tnom = 27
temp = 27
method = modified trap
totiter = 2086
traniter = 2082
tranpoints = 1042
accept = 1042
rejected = 0
matrix size = 9
fillins = 1
solver = Normal
Matrix Compiler1: 422 bytes object code size  0.1/0.1/[0.0]
Matrix Compiler2: 771 bytes object code size  0.1/0.1/[0.1]

