Circuit: * C:\Users\osari\Desktop\ELEC\D5\2\devre2.asc

Direct Newton iteration for .op point succeeded.

Date: Tue Jul 06 18:46:21 2021
Total elapsed time: 0.049 seconds.

tnom = 27
temp = 27
method = modified trap
totiter = 2095
traniter = 2082
tranpoints = 1042
accept = 1042
rejected = 0
matrix size = 11
fillins = 1
solver = Normal
Matrix Compiler1: 450 bytes object code size  0.1/0.1/[0.0]
Matrix Compiler2: 849 bytes object code size  0.1/0.1/[0.1]

