Circuit: * C:\Users\osari\Desktop\lab1_elec2\SONUCLAR_lab1\ikinci devre.asc

Direct Newton iteration failed to find .op point.  (Use ".option noopiter" to skip.)
Starting Gmin stepping
Gmin = 10
Gmin = 1.07374
vernier = 0.5
vernier = 0.25
vernier = 0.125
vernier = 0.0625
Gmin = 1.08884
vernier = 0.03125
vernier = 0.015625
Gmin = 1.03122
vernier = 0.0078125
vernier = 0.00390625
Gmin = 1.01823
vernier = 0.00520833
vernier = 0.00260417
Gmin = 1.01162
vernier = 0.00347222
vernier = 0.00173611
vernier = 0.000868055
Gmin = 1.00899
vernier = 0.00115741
vernier = 0.000578703
Gmin = 1.0071
vernier = 0.000771604
vernier = 0.000578703
Gmin = 1.00579
vernier = 0.000771604
vernier = 0.000578703
vernier = 0.000434027
Gmin = 1.00499
vernier = 0.000578703
vernier = 0.000434027
Gmin = 0
Gmin stepping failed

Starting source stepping with srcstepmethod=0
Source Step = 3.0303%
Source Step = 33.3333%
Source Step = 63.6364%
Source Step = 93.9394%
Source Step = 99.4318%
Source Step = 99.7041%
Source Step = 99.7662%
Source Step = 99.7958%
Source Step = 99.8254%
Source Step = 99.855%
Source Step = 99.8846%
vernier = 0.00146484
Source Step = 99.9157%
Source Step = 99.96%
Source Step = 100%
Source stepping succeeded in finding the operating point.

Changing Tseed to 3.90625e-009
Changing Tseed to 3.90625e-011
Changing Tseed to 3.90625e-008

Date: Sun Oct 10 17:47:26 2021
Total elapsed time: 0.797 seconds.

tnom = 27
temp = 27
method = modified trap
totiter = 10185
traniter = 2118
tranpoints = 1044
accept = 1040
rejected = 1
matrix size = 115
fillins = 336
solver = Normal
Thread vector: 6.1/3.8[2] 2.1/1.5[2] 2.3/2.1[2] 0.5/0.8[1]  2592/500
Matrix Compiler1:    1676 opcodes  4.6/[2.5]/2.8
Matrix Compiler2: 15.45 KB object code size  1.2/1.9/[0.6]

