Circuit: * C:\Users\osari\Desktop\lab5\Lab5.asc

Direct Newton iteration failed to find .op point.  (Use ".option noopiter" to skip.)
Starting Gmin stepping
Gmin = 10
vernier = 0.5
vernier = 0.25
vernier = 0.125
Gmin = 5.5165
vernier = 0.0625
vernier = 0.03125
vernier = 0.015625
vernier = 0.0078125
Gmin = 5.49501
vernier = 0.00390625
vernier = 0.00195313
vernier = 0.000976563
vernier = 0.000488281
Gmin = 5.50104
Gmin = 0
Gmin stepping succeeded in finding the operating point.


Date: Sun Nov 14 14:08:57 2021
Total elapsed time: 0.060 seconds.

tnom = 27
temp = 27
method = trap
totiter = 1532
traniter = 0
tranpoints = 0
accept = 0
rejected = 0
matrix size = 37
fillins = 41
solver = Normal
Matrix Compiler1:     204 opcodes
Matrix Compiler2:     287 opcodes  0.3/[0.3]/0.7

