Circuit: * C:\Users\osari\Desktop\ELEC\D5\4\devre2.asc

Direct Newton iteration for .op point succeeded.

Date: Tue Jul 06 20:25:38 2021
Total elapsed time: 0.071 seconds.

tnom = 27
temp = 27
method = modified trap
totiter = 2298
traniter = 2294
tranpoints = 1148
accept = 1142
rejected = 6
matrix size = 11
fillins = 1
solver = Normal
Matrix Compiler1: 468 bytes object code size  0.1/0.1/[0.1]
Matrix Compiler2: 929 bytes object code size  0.1/0.1/[0.1]

